
**** 11/22/22 11:51:59 ******* PSpice Lite (March 2016) ******* ID# 10813 ****

 ** Profile: "SCHEMATIC1-proiect1"  [ C:\Users\stefa\Desktop\PROIECT1\proiect-orcad\AAP-PSpiceFiles\SCHEMATIC1\proiect1.sim ] 


 ****     CIRCUIT DESCRIPTION


******************************************************************************




** Creating circuit file "proiect1.cir" 
** WARNING: THIS AUTOMATICALLY GENERATED FILE MAY BE OVERWRITTEN BY SUBSEQUENT SIMULATIONS

*Libraries: 
* Profile Libraries :
* Local Libraries :
.LIB "C:/Users/stefa/Desktop/PROIECT1/lib_modelepspice_anexa_1/modele_a1_lib/1n4148.olb" 
.LIB "C:/Users/stefa/Desktop/PROIECT1/lib_modelepspice_anexa_1/modele_a1_lib/bc807-25.olb" 
.LIB "C:/Users/stefa/Desktop/PROIECT1/lib_modelepspice_anexa_1/modele_a1_lib/bc817-25.olb" 
.LIB "C:/Users/stefa/Desktop/PROIECT1/lib_modelepspice_anexa_1/modele_a1_lib/bc846b.olb" 
.LIB "C:/Users/stefa/Desktop/PROIECT1/lib_modelepspice_anexa_1/modele_a1_lib/bc856b.olb" 
.LIB "C:/Users/stefa/Desktop/PROIECT1/lib_modelepspice_anexa_1/modele_a1_lib/bzx84c10.olb" 
.LIB "C:/Users/stefa/Desktop/PROIECT1/lib_modelepspice_anexa_1/modele_a1_lib/mjd31cg.olb" 
.LIB "C:/Users/stefa/Desktop/PROIECT1/lib_modelepspice_anexa_1/modele_a1_lib/mjd32cg.olb" 
* From [PSPICE NETLIST] section of C:\Users\stefa\AppData\Roaming\SPB_16.6\cdssetup\OrCAD_PSpice\17.2.0\PSpice.ini file:
.lib "nomd.lib" 

*Analysis directives: 
.OPTIONS ADVCONV
.PROBE64 V(alias(*)) I(alias(*)) W(alias(*)) D(alias(*)) NOISE(alias(*)) 
.INC "..\SCHEMATIC1.net" 



**** INCLUDING SCHEMATIC1.net ****
* source AAP
V_V3         N00148 0  
+SIN 0 1 1k 0 0 0
C_C1         N00148 N00219 4.7u
R_R1         N00219 N00373 3.9
R_R6         N00373 0 39k
Q_Q1         N01159 N00373 N006171 QBC856B 
Q_Q2         N01197 N01733 N006411 QBC856B 
R_R91         N01218 N006171 250
R_R92         N01218 N006411 260
R_R11         N01159 N01197 30k
R_R8         N01218 N01606 15k
D_D1         0 N01606 BZX84-C10 
R_R7         N01606 N01976 3.3k
R_R10         N01733 N017611 3.3k
C_C3         0 N017611 10u
R_R31         N01733 N02059 39k
R_R12         N01976 N02083 10
C_C4         N02059 N02083 47u
R_R13         N02083 N02258 22
Q_Q3         N02328 N01159 N022901 QBC817-25 
Q_Q4         N02258 N02570 N02328 QBC846B 
R_R15         N022901 N01197 2.87
R_R141         N02258 N02570 1k
R_R142         N02570 N02328 1.8
Q_Q6         N02783 N02328 N02824 QMJD32CT4G 
Q_Q8         N02824 N02783 N01197 QMJD31C 
R_R27         N02783 N01197 0.51
R_R29         N02059 N02824 0.32
R_R28         N03028 N02059 0.32
Q_Q7         N01976 N02979 N03028 QMJD31C 
Q_Q5         N01976 N02258 N02979 QMJD31C 
R_R26         N02979 N03028 0.51
R_R30         N02059 N03612 0.1
R_Rs         0 N03612 4
V_V1         N01976 0 27Vdc
V_V2         0 N01197 27Vdc

**** RESUMING proiect1.cir ****
.END

INFO(ORPSIM-15423): Unable to find index file nomd.ind for library file nomd.lib.

INFO(ORPSIM-15422): Making new index file nomd.ind for library file nomd.lib.

Index has 34104 entries from 205 file(s).

ERROR(ORPSIM-15113): Model BZX84-C10 used by D_D1 is undefined

ERROR(ORPSIM-15113): Model QBC856B used by Q_Q1 is undefined

ERROR(ORPSIM-15113): Model QBC856B used by Q_Q2 is undefined

ERROR(ORPSIM-15113): Model QBC817-25 used by Q_Q3 is undefined

ERROR(ORPSIM-15113): Model QBC846B used by Q_Q4 is undefined

ERROR(ORPSIM-15113): Model QMJD32CT4G used by Q_Q6 is undefined

ERROR(ORPSIM-15113): Model QMJD31C used by Q_Q8 is undefined

ERROR(ORPSIM-15113): Model QMJD31C used by Q_Q7 is undefined

ERROR(ORPSIM-15113): Model QMJD31C used by Q_Q5 is undefined
